
package{

	import flash.display.*;
	import flash.events.*;

	[SWF(width="640",height="480")]
	
	public class MonkeyGame extends Sprite{
	
		public function MonkeyGame(){
		
			addEventListener( Event.ADDED_TO_STAGE,OnAddedToStage );
		}
		
		private function OnAddedToStage( e:Event ):void{
		
			BBMonkeyGame.Main( this );
		}
	}
}

final class Config{
//${CONFIG_BEGIN}
internal static var BINARY_FILES:String="*.bin|*.dat"
internal static var BRL_GAMETARGET_IMPLEMENTED:String="1"
internal static var CD:String=""
internal static var CONFIG:String="debug"
internal static var FLASH_RENDER_WHILE_SUSPENDED:String="0"
internal static var HOST:String="winnt"
internal static var IMAGE_FILES:String="*.png|*.jpg"
internal static var INCDIRS:String="C:/Toolbox/Programming/MonkeyPro69/modules/monkey/native"
internal static var LANG:String="as"
internal static var MODPATH:String=".;C:/Users/Erik/Documents/GitHub/Analytics.Monkey;C:/Toolbox/Programming/MonkeyPro69/modules;C:/Toolbox/Programming/MonkeyPro69/targets/flash/modules"
internal static var MOJO_AUTO_SUSPEND_ENABLED:String="0"
internal static var MOJO_IMAGE_FILTERING_ENABLED:String="1"
internal static var MONKEYDIR:String=""
internal static var MUSIC_FILES:String="*.mp3"
internal static var SAFEMODE:String="0"
internal static var SOUND_FILES:String="*.mp3"
internal static var TARGET:String="flash"
internal static var TEXT_FILES:String="*.txt|*.xml|*.json"
internal static var TRANSDIR:String=""
//${CONFIG_END}
}

final class Assets{
//${ASSETS_BEGIN}
[Embed(source="data/mojo_font.png")]
public static var _9mojo_font3png:Class;
//${ASSETS_END}
}

//${TRANSCODE_BEGIN}

// Actionscript Monkey runtime.
//
// Placed into the public domain 24/02/2011.
// No warranty implied; use at your own risk.

//***** ActionScript Runtime *****

import flash.display.*;
import flash.external.ExternalInterface;

//Consts for radians<->degrees conversions
var D2R:Number=0.017453292519943295;
var R2D:Number=57.29577951308232;

//private
var _errInfo:String="?<?>";
var _errStack:Array=[];

var dbg_index:int=0;

function pushErr():void{
	_errStack.push( _errInfo );
}

function popErr():void{
	_errInfo=_errStack.pop();
}

function stackTrace():String{
	if( !_errInfo.length ) return "";
	var str:String=_errInfo+"\n";
	for( var i:int=_errStack.length-1;i>0;--i ){
		str+=_errStack[i]+"\n";
	}
	return str;
}

function print( str:String ):int{
	if( ExternalInterface.available ) ExternalInterface.call( "monkey_print",str );
	return 0;
}

function error( err:String ):int{
	throw err;
}

function debugLog( str:String ):int{
	print( str );
	return 0;
}

function debugStop():int{
	error( "STOP" );
	return 0;
}

function dbg_object( obj:Object ):Object{
	if( obj ) return obj;
	error( "Null object access" );
	return obj;
}

function dbg_array( arr:Array,index:int ):Array{
	if( index<0 || index>=arr.length ) error( "Array index out of range" );
	dbg_index=index;
	return arr;
}

function new_bool_array( len:int ):Array{
	var arr:Array=new Array( len )
	for( var i:int=0;i<len;++i ) arr[i]=false;
	return arr;
}

function new_number_array( len:int ):Array{
	var arr:Array=new Array( len )
	for( var i:int=0;i<len;++i ) arr[i]=0;
	return arr;
}

function new_string_array( len:int ):Array{
	var arr:Array=new Array( len );
	for( var i:int=0;i<len;++i ) arr[i]='';
	return arr;
}

function new_array_array( len:int ):Array{
	var arr:Array=new Array( len );
	for( var i:int=0;i<len;++i ) arr[i]=[];
	return arr;
}

function new_object_array( len:int ):Array{
	var arr:Array=new Array( len );
	for( var i:int=0;i<len;++i ) arr[i]=null;
	return arr;
}

function resize_bool_array( arr:Array,len:int ):Array{
	var i:int=arr.length;
	arr=arr.slice(0,len);
	if( len<=i ) return arr;
	arr.length=len;
	while( i<len ) arr[i++]=false;
	return arr;
}

function resize_number_array( arr:Array,len:int ):Array{
	var i:int=arr.length;
	arr=arr.slice(0,len);
	if( len<=i ) return arr;
	arr.length=len;
	while( i<len ) arr[i++]=0;
	return arr;
}

function resize_string_array( arr:Array,len:int ):Array{
	var i:int=arr.length;
	arr=arr.slice(0,len);
	if( len<=i ) return arr;
	arr.length=len;
	while( i<len ) arr[i++]="";
	return arr;
}

function resize_array_array( arr:Array,len:int ):Array{
	var i:int=arr.length;
	arr=arr.slice(0,len);
	if( len<=i ) return arr;
	arr.length=len;
	while( i<len ) arr[i++]=[];
	return arr;
}

function resize_object_array( arr:Array,len:int ):Array{
	var i:int=arr.length;
	arr=arr.slice(0,len);
	if( len<=i ) return arr;
	arr.length=len;
	while( i<len ) arr[i++]=null;
	return arr;
}

function string_compare( lhs:String,rhs:String ):int{
	var n:int=Math.min( lhs.length,rhs.length ),i:int,t:int;
	for( i=0;i<n;++i ){
		t=lhs.charCodeAt(i)-rhs.charCodeAt(i);
		if( t ) return t;
	}
	return lhs.length-rhs.length;
}

function string_replace( str:String,find:String,rep:String ):String{	//no unregex replace all?!?
	var i:int=0;
	for(;;){
		i=str.indexOf( find,i );
		if( i==-1 ) return str;
		str=str.substring( 0,i )+rep+str.substring( i+find.length );
		i+=rep.length;
	}
	return str;
}

function string_trim( str:String ):String{
	var i:int=0,i2:int=str.length;
	while( i<i2 && str.charCodeAt(i)<=32 ) i+=1;
	while( i2>i && str.charCodeAt(i2-1)<=32 ) i2-=1;
	return str.slice( i,i2 );
}

function string_tochars( str:String ):Array{
	var arr:Array=new Array( str.length );
	for( var i:int=0;i<str.length;++i ) arr[i]=str.charCodeAt(i);
	return arr;	
}

function string_startswith( str:String,sub:String ):Boolean{
	return sub.length<=str.length && str.slice(0,sub.length)==sub;
}

function string_endswith( str:String,sub:String ):Boolean{
	return sub.length<=str.length && str.slice(str.length-sub.length,str.length)==sub;
}

function string_fromchars( chars:Array ):String{
	var str:String="",i:int;
	for( i=0;i<chars.length;++i ){
		str+=String.fromCharCode( chars[i] );
	}
	return str;
}

class ThrowableObject{
	internal function toString():String{
		return "Uncaught Monkey Exception";
	}
}

import flash.display.*;
import flash.events.*;
import flash.media.*;
import flash.net.*;
import flash.utils.ByteArray;

import flash.ui.*;

class BBGameEvent{
	public static const KeyDown:int=1;
	public static const KeyUp:int=2;
	public static const KeyChar:int=3;
	public static const MouseDown:int=4;
	public static const MouseUp:int=5;
	public static const MouseMove:int=6;
	public static const TouchDown:int=7;
	public static const TouchUp:int=8;
	public static const TouchMove:int=9;
	public static const MotionAccel:int=10;
}

class BBGameDelegate{
	public function StartGame():void{}
	public function SuspendGame():void{}
	public function ResumeGame():void{}
	public function UpdateGame():void{}
	public function RenderGame():void{}
	public function KeyEvent( event:int,data:int ):void{}
	public function MouseEvent( event:int,data:int,x:Number,y:Number ):void{}
	public function TouchEvent( event:int,data:int,x:Number,y:Number ):void{}
	public function MotionEvent( event:int,data:int,x:Number,y:Number,z:Number ):void{}
	public function DiscardGraphics():void{}
}

class BBGame{

	internal static var _game:BBGame;

	internal var _delegate:BBGameDelegate;
	internal var _keyboardEnabled:Boolean;
	internal var _updateRate:int;
	internal var _debugExs:Boolean;
	internal var _started:Boolean;
	internal var _suspended:Boolean;
	internal var _startms:Number;
	
	public function BBGame(){
		_game=this;
		_debugExs=(Config.CONFIG=="debug");
		_startms=(new Date).getTime();
	}
	
	public static function Game():BBGame{
		return _game;
	}
	
	public function SetDelegate( delegate:BBGameDelegate ):void{
		_delegate=delegate;
	}
	
	public function Delegate():BBGameDelegate{
		return _delegate;
	}
	
	public function SetKeyboardEnabled( enabled:Boolean ):void{
		_keyboardEnabled=enabled;
	}
	
	public function SetUpdateRate( hertz:int ):void{
		_updateRate=hertz;
	}
	
	public function Started():Boolean{
		return _started;
	}
	
	public function Suspended():Boolean{
		return _suspended;
	}
	
	public function Millisecs():int{
		return (new Date).getTime()-_startms;
	}
	
	public function GetDate( date:Array ):void{
		var n:int=date.length;
		if( n>0 ){
			var t:Date=new Date();
			date[0]=t.getFullYear();
			if( n>1 ){
				date[1]=t.getMonth()+1;
				if( n>2 ){
					date[2]=t.getDate();
					if( n>3 ){
						date[3]=t.getHours();
						if( n>4 ){
							date[4]=t.getMinutes();
							if( n>5 ){
								date[5]=t.getSeconds();
								if( n>6 ){
									date[6]=t.getMilliseconds();
								}
							}
						}
					}
				}
			}
		}
	}
	
	public function SaveState( state:String ):int{
		var file:SharedObject=SharedObject.getLocal( ".monkeystate" );
		file.data.state=state;
		file.close();
		return 0;
	}
	
	public function LoadState():String{
		var file:SharedObject=SharedObject.getLocal( ".monkeystate" );
		var state:String=file.data.state;
		file.close();
		if( state ) return state;
		return "";
	}

	public function LoadString( path:String ):String{
		var buf:ByteArray=LoadData( path );
		if( buf ) return buf.toString();
		return "";
	}
	
	public function PollJoystick( port:int,joyx:Array,joyy:Array,joyz:Array,buttons:Array ):Boolean{
		return false;
	}
	
	public function OpenUrl( url:String ):void{
		navigateToURL( new URLRequest( url ) );
	}
	
	public function SetMouseVisible( visible:Boolean ):void{
		if( visible ){
			Mouse.show();
		}else{
			Mouse.hide();
		}
	}
	
	//***** Flash extensions *****
	
	public function PathToUrl( path:String ):String{
		return path;
	}
	
	public function LoadData( path:String ):ByteArray{
		//TODO: Load from URL
		return null;
	}
	
	//***** INTERNAL *****
	public function Die( ex:Object ):void{
	
		_delegate=new BBGameDelegate();
		
		if( !ex.toString() ){
			return;
		}
		if( _debugExs ){
			print( "Monkey Runtime Error : "+ex.toString() );
			print( stackTrace() );
		}
		throw ex;
	}
	
	public function StartGame():void{
	
		if( _started ) return;
		_started=true;
		
		try{
			_delegate.StartGame();
		}catch( ex:Object ){
			Die( ex );
		}
	}
	
	public function SuspendGame():void{
	
		if( !_started || _suspended ) return;
		_suspended=true;
		
		try{
			_delegate.SuspendGame();
		}catch( ex:Object ){
			Die( ex );
		}
	}
	
	public function ResumeGame():void{

		if( !_started || !_suspended ) return;
		_suspended=false;
		
		try{
			_delegate.ResumeGame();
		}catch( ex:Object ){
			Die( ex );
		}
	}
	
	public function UpdateGame():void{

		if( !_started || _suspended ) return;
		
		try{
			_delegate.UpdateGame();
		}catch( ex:Object ){
			Die( ex );
		}
	}
	
	public function RenderGame():void{

		if( !_started ) return;
		
		try{
			_delegate.RenderGame();
		}catch( ex:Object ){
			Die( ex );
		}
	}
	
	public function KeyEvent( ev:int,data:int ):void{

		if( !_started ) return;
		
		try{
			_delegate.KeyEvent( ev,data );
		}catch( ex:Object ){
			Die( ex );
		}
	}
	
	public function MouseEvent( ev:int,data:int,x:Number,y:Number ):void{

		if( !_started ) return;
		
		try{
			_delegate.MouseEvent( ev,data,x,y );
		}catch( ex:Object ){
			Die( ex );
		}
	}
	
	public function TouchEvent( ev:int,data:int,x:Number,y:Number ):void{

		if( !_started ) return;
		
		try{
			_delegate.TouchEvent( ev,data,x,y );
		}catch( ex:Object ){
			Die( ex );
		}
	}
	
	public function MotionEvent( ev:int,data:int,x:Number,y:Number,z:Number ):void{

		if( !_started ) return;
		
		try{
			_delegate.MotionEvent( ev,data,x,y,z );
		}catch( ex:Object ){
			Die( ex );
		}
	}
	
	public function DiscardGraphics():void{

		if( !_started ) return;
		
		try{
			_delegate.DiscardGraphics();
		}catch( ex:Object ){
			Die( ex );
		}
	}
}

class BBFlashGame extends BBGame{

	internal static var _flashGame:BBFlashGame;
	
	internal var _root:DisplayObjectContainer;
	
	internal var _nextUpdate:Number;
	internal var _updatePeriod:Number;

	public function BBFlashGame( root:DisplayObjectContainer ){
		_flashGame=this;
		_root=root;
	}
	
	public static function FlashGame():BBFlashGame{
		return _flashGame;
	}
	
	internal function KeyToChar( key:int ):int{
		switch( key ){
		case 8:case 9:case 13:case 27:
			return key;
		case 33:case 34:case 35:case 36:case 37:case 38:case 39:case 40:case 45:
			return key | 0x10000;
		case 46:
			return 127;
		}
		return 0;
	}
	
	internal function ValidateUpdateTimer():void{
		if( _updateRate && !_suspended ){
			_updatePeriod=1000.0/_updateRate;
			_nextUpdate=(new Date).getTime()+_updatePeriod;
			_root.stage.frameRate=_updateRate;
		}else{
			_root.stage.frameRate=24;
		}
	}
	
	//***** BBGame *****	
	
	public override function SetUpdateRate( hertz:int ):void{
		super.SetUpdateRate( hertz );
		ValidateUpdateTimer();
	}
	
	public override function PathToUrl( path:String ):String {
		if( path.indexOf( "monkey:" )!=0 ){
			return path;
		}else if( path.indexOf( "monkey://data/" )==0 ){
			return "data/"+path.slice( 14 );
		}
		return "";
	}

	public override function LoadData( path:String ):ByteArray{
		var t:Class=GetAsset( path );
		if( t ) return (new t) as ByteArray;
		return null;
	}

	public function GetDisplayObjectContainer():DisplayObjectContainer{
		return _root;
	}

	public function GetAsset( path:String ):Class{
		if( path.indexOf( "monkey://data/" )!=0 ) return null;

		path=path.slice(14);
		
		var i:int=path.indexOf( "." ),ext:String="";
		if( i!=-1 ){
			ext=path.slice(i+1);
			path=path.slice(0,i);
		}

		var munged:String="_";
		var bits:Array=path.split( "/" );
		
		for( i=0;i<bits.length;++i ){
			munged+=bits[i].length+bits[i];
		}
		munged+=ext.length+ext;
		
		return Assets[munged];
	}
	
	public function LoadBitmap( path:String ):Bitmap{
		var t:Class=GetAsset( path );
		if( t ) return (new t) as Bitmap;
		return null;
	}
	
	public function LoadSound( path:String ):Sound{
		var t:Class=GetAsset( path );
		if( t ) return (new t) as Sound;
		return null;
	}
	
	//***** INTERNAL *****
	
	public override function SuspendGame():void{
		super.SuspendGame();
		ValidateUpdateTimer();
	}
	
	public override function ResumeGame():void{
		super.ResumeGame();
		ValidateUpdateTimer();
	}

	public function Run():void{

		_root.stage.addEventListener( Event.ACTIVATE,OnActivate );
		_root.stage.addEventListener( Event.DEACTIVATE,OnDeactivate );
		_root.stage.addEventListener( Event.ENTER_FRAME,OnEnterFrame );
		_root.stage.addEventListener( KeyboardEvent.KEY_DOWN,OnKeyDown );
		_root.stage.addEventListener( KeyboardEvent.KEY_UP,OnKeyUp );
		_root.stage.addEventListener( flash.events.MouseEvent.MOUSE_DOWN,OnMouseDown );
		_root.stage.addEventListener( flash.events.MouseEvent.MOUSE_UP,OnMouseUp );
		_root.stage.addEventListener( flash.events.MouseEvent.MOUSE_MOVE,OnMouseMove );
		
		StartGame();
	}

	public function OnActivate( e:Event ):void{
		if( Config.MOJO_AUTO_SUSPEND_ENABLED=="1" ) ResumeGame();
	}
	
	public function OnDeactivate( e:Event ):void{
		if( Config.MOJO_AUTO_SUSPEND_ENABLED=="1" ) SuspendGame();
	}
	
	public function OnEnterFrame( e:Event ):void{
		if( !_updateRate || _suspended ){
			if( Config.FLASH_RENDER_WHILE_SUSPENDED=="1" ) RenderGame();
			return;
		}
		var updates:int;
		for( updates=0;updates<4;++updates ){
			_nextUpdate+=_updatePeriod;
			
			UpdateGame();
			if( !_updateRate  || _suspended ) break;
			
			if( _nextUpdate-((new Date).getTime())>0 ) break;
		}
		
		RenderGame();
		if( !_updateRate  || _suspended ) return;
		
		if( updates==4 ) _nextUpdate=(new Date).getTime();
	}
	
	public function OnKeyDown( e:KeyboardEvent ):void{
		KeyEvent( BBGameEvent.KeyDown,e.keyCode );
		if( e.charCode!=0 ){
			KeyEvent( BBGameEvent.KeyChar,e.charCode );
		}else{
			var chr:int=KeyToChar( e.keyCode );
			if( chr ) KeyEvent( BBGameEvent.KeyChar,chr );
		}
	}

	public function OnKeyUp( e:KeyboardEvent ):void{
		KeyEvent( BBGameEvent.KeyUp,e.keyCode );
	}
		
	public function OnMouseDown( e:flash.events.MouseEvent ):void{
		MouseEvent( BBGameEvent.MouseDown,0,e.localX,e.localY );
	}
		
	public function OnMouseUp( e:flash.events.MouseEvent ):void{
		MouseEvent( BBGameEvent.MouseUp,0,e.localX,e.localY );
	}

	public function OnMouseMove( e:flash.events.MouseEvent ):void{
		MouseEvent( BBGameEvent.MouseMove,-1,e.localX,e.localY );
	}

}

class BBMonkeyGame extends BBFlashGame{

	internal static var _monkeyGame:BBMonkeyGame;
	
	public function BBMonkeyGame( root:DisplayObjectContainer ){
		super( root );
	}
	
	public static function Main( root:DisplayObjectContainer ):void{
		
		_monkeyGame=new BBMonkeyGame( root );

		try{
		
			bbInit();
			bbMain();
			
		}catch( ex:Object ){
		
			_monkeyGame.Die( ex );
			return;
		}
		
		if( !_monkeyGame.Delegate() ) return;
		
		_monkeyGame.Run();
	}
}
import com.google.analytics.AnalyticsTracker;
import com.google.analytics.GATracker;
var tracker:AnalyticsTracker;

function InitGoogleAnalytics(ID:String):void{
	tracker = new GATracker( BBFlashGame.FlashGame().GetDisplayObjectContainer(), ID, "AS3", false );
	tracker.setDomainName("none");
}

function GoogleAnalyticsEvent(category:String,action:String,label:c_StringObject=null,number:c_IntObject=null,notrack:c_BoolObject=null):void{
	
	if(label==null){
		tracker.trackEvent(category, action);
	}else if(number==null){
		tracker.trackEvent(category,action,label.m_value);
	}else{
		tracker.trackEvent(category,action,label.m_value,number.m_value);
	}
}
// Flash mojo runtime.
//
// Copyright 2011 Mark Sibly, all rights reserved.
// No warranty implied; use at your own risk.

import flash.display.*;
import flash.events.*;
import flash.media.*;
import flash.geom.*;
import flash.utils.*;
import flash.net.*;

class gxtkGraphics{

	internal var game:BBFlashGame;
	internal var stage:Stage;

	internal var bitmap:Bitmap;
	
	internal var red:Number=255;
	internal var green:Number=255;
	internal var blue:Number=255;
	internal var alpha:Number=1;
	internal var colorARGB:uint=0xffffffff;
	internal var colorTform:ColorTransform=null;
	internal var alphaTform:ColorTransform=null;
	
	internal var matrix:Matrix;
	internal var rectBMData:BitmapData;
	internal var blend:String;
	internal var clipRect:Rectangle;
	
	internal var shape:Shape;
	internal var graphics:Graphics;
	internal var bitmapData:BitmapData;
	
	internal var graphics_dirty:Boolean;

	internal var pointMat:Matrix=new Matrix;
	internal var rectMat:Matrix=new Matrix;
	internal var imageMat:Matrix=new Matrix;
	internal var pointCoords:Point=new Point;
	
	internal var image_filtering_enabled:Boolean;
	
	function gxtkGraphics(){

		game=BBFlashGame.FlashGame();
		stage=game.GetDisplayObjectContainer().stage;
		
		bitmap=new Bitmap();
		bitmap.bitmapData=new BitmapData( stage.stageWidth,stage.stageHeight,false,0xff0000ff );
		bitmap.width=stage.stageWidth;
		bitmap.height=stage.stageHeight;
		game.GetDisplayObjectContainer().addChild( bitmap );

		shape=new Shape;
		graphics=shape.graphics;
		bitmapData=bitmap.bitmapData;
	
		stage.addEventListener( Event.RESIZE,OnResize );
	
		rectBMData=new BitmapData( 1,1,false,0xffffffff );
		
		image_filtering_enabled=(Config.MOJO_IMAGE_FILTERING_ENABLED=="1");
	}
	
	internal function OnResize( e:Event ):void{
		var w:int=stage.stageWidth;
		var h:int=stage.stageHeight;
		if( w==bitmap.width && h==bitmap.height ) return;
		bitmap.bitmapData=new BitmapData( w,h,false,0xff0000ff );
		bitmap.width=w;
		bitmap.height=h;
	}

	internal function BeginRender():int{
		return 1;
	}

	internal function UseGraphics():void{
		if( graphics_dirty && alphaTform ){
			bitmapData.draw( shape,matrix,alphaTform,blend,clipRect,false );
			graphics.clear();
			return;
		}
		graphics_dirty=true;
	}

	internal function FlushGraphics():void{
		if( graphics_dirty ){
			graphics_dirty=false;
			bitmapData.draw( shape,matrix,alphaTform,blend,clipRect,false );
			graphics.clear();
		}
	}
	
	internal function EndRender():void{
		FlushGraphics();
	}
	
	internal function DiscardGraphics():void{
	}
	
	internal function updateColor():void{
	
		colorARGB=(int(alpha*255)<<24)|(int(red)<<16)|(int(green)<<8)|int(blue);
		
		if( colorARGB==0xffffffff ){
			colorTform=null;
			alphaTform=null;
		}else{
			colorTform=new ColorTransform( red/255.0,green/255.0,blue/255.0,alpha );
			if( alpha==1 ){
				alphaTform=null;
			}else{
				alphaTform=new ColorTransform( 1,1,1,alpha );
			}
		}
	}

	//***** GXTK API *****

	public function Width():int{
		return bitmap.width;
	}

	public function Height():int{
		return bitmap.height;
	}
	
	public function LoadSurface__UNSAFE__( surface:gxtkSurface,path:String ):gxtkSurface{
		return null;
	}

	public function LoadSurface( path:String ):gxtkSurface{
		var bitmap:Bitmap=game.LoadBitmap( path );
		if( bitmap==null ) return null;
		return new gxtkSurface( bitmap );
	}
	
	public function CreateSurface( width:int,height:int ):gxtkSurface{
		var bitmapData:BitmapData=new BitmapData( width,height,true,0 );
		var bitmap:Bitmap=new Bitmap( bitmapData );
		return new gxtkSurface( bitmap );
	}
	
	public function SetAlpha( a:Number ):int{
		FlushGraphics();
		
		alpha=a;
		
		updateColor();
		
		return 0;
	}
	
	public function SetColor( r:Number,g:Number,b:Number ):int{
		FlushGraphics();
		
		red=r;
		green=g;
		blue=b;
		
		updateColor();
		
		return 0;
	}
	
	public function SetBlend( blend:int ):int{
		switch( blend ){
		case 1:
			this.blend=BlendMode.ADD;
			break;
		default:
			this.blend=null;
		}
		return 0;
	}
	
	public function SetScissor( x:int,y:int,w:int,h:int ):int{
		FlushGraphics();
		
		if( x!=0 || y!=0 || w!=bitmap.width || h!=bitmap.height ){
			clipRect=new Rectangle( x,y,w,h );
		}else{
			clipRect=null;
		}
		return 0;
	}

	public function SetMatrix( ix:Number,iy:Number,jx:Number,jy:Number,tx:Number,ty:Number ):int{
		FlushGraphics();
		
		if( ix!=1 || iy!=0 || jx!=0 || jy!=1 || tx!=0 || ty!=0 ){
			matrix=new Matrix( ix,iy,jx,jy,tx,ty );
		}else{
			matrix=null;
		}
		return 0;
	}

	public function Cls( r:Number,g:Number,b:Number ):int{
		FlushGraphics();

		var clsColor:uint=0xff000000|(int(r)<<16)|(int(g)<<8)|int(b);
		var rect:Rectangle=clipRect;
		if( !rect ) rect=new Rectangle( 0,0,bitmap.width,bitmap.height );
		bitmapData.fillRect( rect,clsColor );
		return 0;
	}
	
	public function DrawPoint( x:Number,y:Number ):int{
		FlushGraphics();
		
		if( matrix ){
			var px:Number=x;
			x=px * matrix.a + y * matrix.c + matrix.tx;
			y=px * matrix.b + y * matrix.d + matrix.ty;
		}
		if( clipRect || alphaTform || blend ){
			pointMat.tx=x;pointMat.ty=y;
			bitmapData.draw( rectBMData,pointMat,colorTform,blend,clipRect,false );
		}else{
			bitmapData.fillRect( new Rectangle( x,y,1,1 ),colorARGB );
		}
		return 0;
	}
	
	
	public function DrawRect( x:Number,y:Number,w:Number,h:Number ):int{
		FlushGraphics();
		
		if( matrix ){
			var mat:Matrix=new Matrix( w,0,0,h,x,y );
			mat.concat( matrix );
			bitmapData.draw( rectBMData,mat,colorTform,blend,clipRect,false );
		}else if( clipRect || alphaTform || blend ){
			rectMat.a=w;rectMat.d=h;rectMat.tx=x;rectMat.ty=y;
			bitmapData.draw( rectBMData,rectMat,colorTform,blend,clipRect,false );
		}else{
			bitmapData.fillRect( new Rectangle( x,y,w,h ),colorARGB );
		}
		return 0;
	}

	public function DrawLine( x1:Number,y1:Number,x2:Number,y2:Number ):int{
		
		if( matrix ){
		
			FlushGraphics();
			
			var x1_t:Number=x1 * matrix.a + y1 * matrix.c + matrix.tx;
			var y1_t:Number=x1 * matrix.b + y1 * matrix.d + matrix.ty;
			var x2_t:Number=x2 * matrix.a + y2 * matrix.c + matrix.tx;
			var y2_t:Number=x2 * matrix.b + y2 * matrix.d + matrix.ty;
			
			graphics.lineStyle( 1,colorARGB & 0xffffff );	//why the mask?
			graphics.moveTo( x1_t,y1_t );
			graphics.lineTo( x2_t,y2_t );
			graphics.lineStyle();
			
			bitmapData.draw( shape,null,alphaTform,blend,clipRect,false );
			graphics.clear();
			
		}else{
		
			UseGraphics();

			graphics.lineStyle( 1,colorARGB & 0xffffff );	//why the mask?
			graphics.moveTo( x1,y1 );
			graphics.lineTo( x2,y2 );
			graphics.lineStyle();
		}

		return 0;
 	}

	public function DrawOval( x:Number,y:Number,w:Number,h:Number ):int{
		UseGraphics();

		graphics.beginFill( colorARGB & 0xffffff );			//why the mask?
		graphics.drawEllipse( x,y,w,h );
		graphics.endFill();

		return 0;
	}
	
	public function DrawPoly( verts:Array ):int{
		if( verts.length<6 ) return 0;
		
		UseGraphics();
		
		graphics.beginFill( colorARGB & 0xffffff );			//why the mask?
		
		graphics.moveTo( verts[0],verts[1] );
		for( var i:int=0;i<verts.length;i+=2 ){
			graphics.lineTo( verts[i],verts[i+1] );
		}
		graphics.endFill();
		
		return 0;
	}

	public function DrawSurface( surface:gxtkSurface,x:Number,y:Number ):int{
		FlushGraphics();
		
		if( matrix ){
			var mat:Matrix=new Matrix( 1,0,0,1,x,y );
			mat.concat( matrix );
			bitmapData.draw( surface.bitmap.bitmapData,mat,colorTform,blend,clipRect,image_filtering_enabled );
		}else if( clipRect || colorTform || blend ){
			imageMat.tx=x;imageMat.ty=y;
			bitmapData.draw( surface.bitmap.bitmapData,imageMat,colorTform,blend,clipRect,image_filtering_enabled );
		}else{
			pointCoords.x=x;pointCoords.y=y;
			bitmapData.copyPixels( surface.bitmap.bitmapData,surface.rect,pointCoords );
		}

		return 0;
	}

	public function DrawSurface2( surface:gxtkSurface,x:Number,y:Number,srcx:int,srcy:int,srcw:int,srch:int ):int{
		if( srcw<0 ){ srcx+=srcw;srcw=-srcw; }
		if( srch<0 ){ srcy+=srch;srch=-srch; }
		if( srcw<=0 || srch<=0 ) return 0;
		
		FlushGraphics();

		var srcrect:Rectangle=new Rectangle( srcx,srcy,srcw,srch );
		
		if( matrix || clipRect || colorTform || blend ){

			var scratch:BitmapData=surface.scratch;
			if( scratch==null || srcw!=scratch.width || srch!=scratch.height ){
				if( scratch!=null ) scratch.dispose();
				scratch=new BitmapData( srcw,srch );
				surface.scratch=scratch;
			}
			pointCoords.x=0;pointCoords.y=0;
			scratch.copyPixels( surface.bitmap.bitmapData,srcrect,pointCoords );
			
			var mat:Matrix;
			if( matrix ){
				mat=new Matrix( 1,0,0,1,x,y );
				mat.concat( matrix );
			}else{
				imageMat.tx=x;imageMat.ty=y;
				mat=imageMat;
			}
			bitmapData.draw( scratch,mat,colorTform,blend,clipRect,image_filtering_enabled );
		}else{
			pointCoords.x=x;pointCoords.y=y;
			bitmapData.copyPixels( surface.bitmap.bitmapData,srcrect,pointCoords );
		}
		return 0;
	}
	
	public function ReadPixels( pixels:Array,x:int,y:int,width:int,height:int,offset:int,pitch:int ):int{
	
		FlushGraphics();
		
		var data:ByteArray=bitmapData.getPixels( new Rectangle( x,y,width,height ) );
		data.position=0;
		
		var px:int,py:int,j:int=offset,argb:int;
		
		for( py=0;py<height;++py ){
			for( px=0;px<width;++px ){
				pixels[j++]=data.readInt();
			}
			j+=pitch-width;
		}
		
		return 0;
	}
	
	public function WritePixels2( surface:gxtkSurface,pixels:Array,x:int,y:int,width:int,height:int,offset:int,pitch:int ):int{

		FlushGraphics();
		
		var data:ByteArray=new ByteArray();
		data.length=width*height;
			
		var px:int,py:int,j:int=offset,argb:int;
		
		for( py=0;py<height;++py ){
			for( px=0;px<width;++px ){
				data.writeInt( pixels[j++] );
			}
			j+=pitch-width;
		}
		data.position=0;
		
		surface.bitmap.bitmapData.setPixels( new Rectangle( x,y,width,height ),data );
		
		return 0;
	}
}

//***** gxtkSurface *****

class gxtkSurface{
	internal var bitmap:Bitmap;
	internal var rect:Rectangle;
	internal var scratch:BitmapData;
	
	function gxtkSurface( bitmap:Bitmap ){
		SetBitmap( bitmap );
	}
	
	public function SetBitmap( bitmap:Bitmap ):void{
		this.bitmap=bitmap;
		rect=new Rectangle( 0,0,bitmap.width,bitmap.height );
	}

	//***** GXTK API *****

	public function Discard():int{
		return 0;
	}
	
	public function Width():int{
		return rect.width;
	}

	public function Height():int{
		return rect.height;
	}

	public function Loaded():int{
		return 1;
	}
	
	public function OnUnsafeLoadComplete():Boolean{
		return true;
	}
}

class gxtkChannel{
	internal var channel:SoundChannel;	//null then not playing
	internal var sample:gxtkSample;
	internal var loops:int;
	internal var transform:SoundTransform=new SoundTransform();
	internal var pausepos:Number;
	internal var state:int;
}

class gxtkAudio{

	internal var game:BBFlashGame;
	internal var music:gxtkSample;

	internal var channels:Array=new Array( 33 );

	internal var loop_kludge:int=1;

	function gxtkAudio(){
		game=BBFlashGame.FlashGame();
		for( var i:int=0;i<33;++i ){
			channels[i]=new gxtkChannel();
		}
	}
	
	internal function SoundComplete( ev:Event ):void{
		if( !loop_kludge ) return;
		for( var i:int=0;i<33;++i ){
			var chan:gxtkChannel=channels[i];
			if( chan.state==1 && chan.channel==ev.target && chan.loops ){
				chan.channel=chan.sample.sound.play( 0,0,chan.transform );
				chan.channel.addEventListener( Event.SOUND_COMPLETE,SoundComplete );
				break;
			}
		}
	}
	
	//***** GXTK API *****
	
	public function Suspend():int{
		for( var i:int=0;i<33;++i ){
			var chan:gxtkChannel=channels[i];
			if( chan.state==1 ){
				chan.pausepos=chan.channel.position;
				chan.channel.stop();
			}
		}
		return 0;
	}
	
	public function Resume():int{
		for( var i:int=0;i<33;++i ){
			var chan:gxtkChannel=channels[i];
			if( chan.state==1 ){
				if( loop_kludge ){
					chan.channel=chan.sample.sound.play( chan.pausepos,0,chan.transform );
					if( chan.loops ) chan.channel.addEventListener( Event.SOUND_COMPLETE,SoundComplete );
				}else{
					chan.channel=chan.sample.sound.play( chan.pausepos,chan.loops,chan.transform );
				}
			}
		}
		return 0;
	}
	
	public function LoadSample__UNSAFE__( sample:gxtkSample,path:String ):gxtkSample{
		return null;
	}
	
	public function LoadSample( path:String ):gxtkSample{
		var sound:Sound=game.LoadSound( path );
		if( sound ) return new gxtkSample( sound );
		return null;
	}
	
	public function PlaySample( sample:gxtkSample,channel:int,flags:int ):int{
		var chan:gxtkChannel=channels[channel];
		
		if( chan.state!=0 ) chan.channel.stop();

		chan.sample=sample;
		chan.loops=flags ? 0x7fffffff : 0;
		chan.state=1;
		if( loop_kludge ){
			chan.channel=sample.sound.play( 0,0,chan.transform );
			chan.channel.addEventListener( Event.SOUND_COMPLETE,SoundComplete );
		}else{